EPRI_Ckt7_DER_Project/electricdss-code-r4133-trunk-Distrib-EPRITestCircuits-ckt7/ckt7_EXP_VOLTAGES.csv
Bus, BasekV, Node1, Magnitude1, Angle1, pu1, Node2, Magnitude2, Angle2, pu2, Node3, Magnitude3, Angle3, pu3
"SOURCEBUS", 115, 1,    64817.3,   -7.8,   0.97623, 2,    64827.6, -127.8,   0.97639, 3,    64828.4,  112.2,    0.9764
"CKT7", 12.47, 1,    7019.84,  -38.0,   0.97504, 2,    7019.79, -158.0,   0.97503, 3,    7021.02,   82.0,    0.9752
"318405", 12.47, 1,    7019.84,  -38.0,   0.97504, 2,    7019.79, -158.0,   0.97503, 3,    7021.02,   82.0,    0.9752
"318412", 12.47, 1,    7019.84,  -38.0,   0.97504, 2,    7019.79, -158.0,   0.97503, 3,    7021.02,   82.0,    0.9752
"318414", 12.47, 1,    7019.84,  -38.0,   0.97504, 2,    7019.79, -158.0,   0.97503, 3,    7021.02,   82.0,    0.9752
"157345", 12.47, 1,    7015.86,  -38.0,   0.97448, 2,    7019.18, -158.0,   0.97495, 3,    7017.59,   82.0,   0.97472
"157346", 12.47, 1,    7015.86,  -38.0,   0.97449, 2,    7019.19, -158.0,   0.97495, 3,    7017.59,   82.0,   0.97473
"165442", 12.47, 1,    7015.78,  -38.0,   0.97447, 2,    7019.16, -158.0,   0.97494, 3,    7017.47,   82.0,   0.97471
"298160", 12.47, 1,    7011.32,  -38.1,   0.97385, 2,    7017.05, -158.0,   0.97465, 3,    7011.64,   82.0,    0.9739
"165448", 12.47, 1,    7008.87,  -38.1,   0.97351, 2,    7016.03, -158.0,   0.97451, 3,    7009.39,   82.0,   0.97359
"275354", 12.47, 1,    7000.93,  -38.2,   0.97241, 2,    7011.94, -158.1,   0.97394, 3,    6999.21,   81.9,   0.97217
"165449", 12.47, 1,    7000.32,  -38.2,   0.97233, 2,    7011.64, -158.1,    0.9739, 3,    6998.41,   81.9,   0.97206
"165450", 12.47, 1,    7000.32,  -38.2,   0.97233, 2,    7011.64, -158.1,    0.9739, 3,    6998.41,   81.9,   0.97206
"165453", 12.47, 1,    6997.35,  -38.2,   0.97191, 2,    7009.54, -158.1,   0.97361, 3,    6994.86,   81.8,   0.97157
"165454", 12.47, 1,    6996.79,  -38.2,   0.97184, 2,    7008.96, -158.1,   0.97353, 3,    6994.29,   81.8,   0.97149
"165451", 12.47, 1,    6998.23,  -38.2,   0.97204, 2,    7010.61, -158.1,   0.97376, 3,    6995.69,   81.8,   0.97168
"238402", 12.47, 1,    6996.43,  -38.2,   0.97179, 2,     7008.6, -158.1,   0.97348, 3,    6993.93,   81.8,   0.97144
"165455", 12.47, 1,    6993.97,  -38.2,   0.97144, 2,    7006.14, -158.1,   0.97314, 3,    6991.47,   81.8,    0.9711
"165456", 12.47, 1,    6993.99,  -38.2,   0.97145, 2,    7006.16, -158.1,   0.97314, 3,    6991.49,   81.8,    0.9711
"165452", 12.47, 1,    6994.95,  -38.2,   0.97158, 2,    7007.12, -158.1,   0.97327, 3,    6992.44,   81.8,   0.97123
"283563", 12.47, 1,    6994.18,  -38.2,   0.97147, 2,    7006.35, -158.1,   0.97316, 3,    6991.67,   81.8,   0.97113
"165457", 12.47, 1,    6993.89,  -38.2,   0.97143, 2,    7006.06, -158.1,   0.97312, 3,    6991.38,   81.8,   0.97109
"165458", 12.47, 1,    6997.39,  -38.2,   0.97192, 2,    7009.77, -158.1,   0.97364, 3,    6994.85,   81.8,   0.97157
"165459", 12.47, 1,    6997.43,  -38.2,   0.97193, 2,    7009.81, -158.1,   0.97364, 3,    6994.89,   81.8,   0.97157
"165460", 12.47, 1,    6997.19,  -38.2,   0.97189, 2,    7009.57, -158.1,   0.97361, 3,    6994.65,   81.8,   0.97154
"165461", 12.47, 1,    6994.35,  -38.2,    0.9715, 2,    7006.72, -158.1,   0.97322, 3,     6991.8,   81.8,   0.97114
"165463", 12.47, 1,    6993.46,  -38.2,   0.97137, 2,    7005.83, -158.1,   0.97309, 3,    6990.91,   81.8,   0.97102
"165462", 12.47, 1,    6992.79,  -38.2,   0.97128, 2,    7005.16, -158.1,     0.973, 3,    6990.24,   81.8,   0.97093
"165465", 12.47, 1,    6993.39,  -38.2,   0.97136, 2,    7005.76, -158.1,   0.97308, 3,    6990.84,   81.8,   0.97101
"165466", 12.47, 1,    6994.34,  -38.2,    0.9715, 2,    7006.71, -158.1,   0.97321, 3,    6991.79,   81.8,   0.97114
"165467", 12.47, 1,    6993.59,  -38.2,   0.97139, 2,    7008.45, -158.1,   0.97346, 3,    6990.56,   81.8,   0.97097
"165468", 12.47, 1,     6993.2,  -38.3,   0.97134, 2,    7008.42, -158.1,   0.97345, 3,     6989.9,   81.8,   0.97088
"165475", 12.47, 1,    7000.06,  -38.2,   0.97229, 2,    7015.07, -158.1,   0.97437, 3,    6996.48,   81.9,   0.97179
"165476", 12.47, 1,    7000.11,  -38.2,    0.9723, 2,    7015.11, -158.0,   0.97438, 3,    6996.53,   81.9,    0.9718
"165477", 12.47, 1,    6999.77,  -38.2,   0.97225, 2,    7014.76, -158.1,   0.97433, 3,    6996.19,   81.9,   0.97175
"273626", 12.47, 1,    6997.85,  -38.2,   0.97198, 2,    7013.01, -158.1,   0.97409, 3,    6994.28,   81.9,   0.97149
"165469", 12.47, 1,     6992.8,  -38.3,   0.97128, 2,     7008.4, -158.1,   0.97345, 3,    6989.25,   81.8,   0.97079
"165480", 12.47, 1,    6992.17,  -38.3,   0.97119, 2,     7008.4, -158.1,   0.97345, 3,    6988.19,   81.8,   0.97064
"165478", 12.47, 1,    6991.73,  -38.3,   0.97113, 2,    7008.41, -158.1,   0.97345, 3,    6987.45,   81.8,   0.97054
"165479", 12.47, 1,     6991.3,  -38.3,   0.97107, 2,    7008.46, -158.1,   0.97346, 3,     6986.7,   81.8,   0.97043
"165484", 12.47, 1,    6991.44,  -38.3,   0.97109, 2,    7008.13, -158.1,   0.97341, 3,    6987.16,   81.8,    0.9705
"165483", 12.47, 1,    6991.49,  -38.3,    0.9711, 2,    7008.17, -158.1,   0.97342, 3,    6987.21,   81.8,   0.97051
"261839", 12.47, 1,    6991.51,  -38.3,    0.9711, 2,    7008.19, -158.1,   0.97342, 3,    6987.23,   81.8,   0.97051
"261838", 12.47, 1,    6991.52,  -38.3,    0.9711, 2,    7008.21, -158.1,   0.97342, 3,    6987.24,   81.8,   0.97051
"165486", 12.47, 1,    6991.17,  -38.3,   0.97106, 2,    7008.47, -158.1,   0.97346, 3,    6986.68,   81.8,   0.97043
"165485", 12.47, 1,    6991.12,  -38.3,   0.97105, 2,    7008.49, -158.1,   0.97346, 3,    6986.68,   81.8,   0.97043
"165487", 12.47, 1,    6990.72,  -38.3,   0.97099, 2,    7008.51, -158.1,   0.97346, 3,    6985.62,   81.8,   0.97028
"165488", 12.47, 1,    6990.02,  -38.3,    0.9709, 0, 0, 0, 0, 0, 0, 0, 0
"165489", 12.47, 1,    6990.05,  -38.3,    0.9709, 0, 0, 0, 0, 0, 0, 0, 0
"165491", 12.47, 1,    6989.62,  -38.3,   0.97084, 0, 0, 0, 0, 0, 0, 0, 0
"165490", 12.47, 1,    6989.21,  -38.3,   0.97078, 0, 0, 0, 0, 0, 0, 0, 0
"165494", 12.47, 1,     6988.8,  -38.3,   0.97073, 0, 0, 0, 0, 0, 0, 0, 0
"165492", 12.47, 1,     6988.7,  -38.3,   0.97071, 0, 0, 0, 0, 0, 0, 0, 0
"165493", 12.47, 1,    6988.48,  -38.3,   0.97068, 0, 0, 0, 0, 0, 0, 0, 0
"283952", 12.47, 1,    6990.36,  -38.4,   0.97094, 2,    7008.38, -158.1,   0.97345, 3,    6984.46,   81.8,   0.97012
"165500", 12.47, 1,    6989.31,  -38.4,    0.9708, 2,    7008.01, -158.2,   0.97339, 3,    6981.64,   81.7,   0.96973
"165501", 12.47, 1,     6989.3,  -38.4,    0.9708, 2,       7008, -158.2,   0.97339, 3,    6981.64,   81.7,   0.96973
"165495", 12.47, 1,    6989.34,  -38.4,    0.9708, 2,    7008.05, -158.2,    0.9734, 3,    6981.68,   81.7,   0.96974
"165503", 12.47, 1,    6989.19,  -38.4,   0.97078, 2,    7007.89, -158.2,   0.97338, 3,    6981.52,   81.7,   0.96972
"165504", 12.47, 1,    6937.71,  -38.7,   0.96363, 2,    6965.21, -158.4,   0.96745, 3,    6921.33,   81.4,   0.96135
"181883", 12.47, 1,    6930.75,  -38.9,   0.96266, 2,    6959.07, -158.6,    0.9666, 3,    6913.57,   81.2,   0.96028
"158676", 12.47, 1,    6930.75,  -38.9,   0.96266, 2,    6959.07, -158.6,    0.9666, 3,    6913.57,   81.2,   0.96028
"181889", 12.47, 1,    6928.09,  -38.9,   0.96229, 2,     6956.2, -158.6,    0.9662, 3,    6911.37,   81.2,   0.95997
"181890", 12.47, 1,    6928.08,  -38.9,   0.96229, 2,    6956.18, -158.6,    0.9662, 3,    6911.35,   81.2,   0.95997
"181891", 12.47, 1,    6925.65,  -38.9,   0.96195, 2,    6953.56, -158.6,   0.96583, 3,    6909.52,   81.2,   0.95971
"181892", 12.47, 1,    6925.59,  -38.9,   0.96195, 2,    6953.51, -158.6,   0.96582, 3,    6909.49,   81.2,   0.95971
"181884", 12.47, 1,    6928.63,  -38.9,   0.96237, 2,    6956.78, -158.6,   0.96628, 3,    6911.82,   81.2,   0.96003
"181886", 12.47, 1,    6928.13,  -38.9,    0.9623, 2,    6956.24, -158.6,    0.9662, 3,    6911.41,   81.2,   0.95998
"181888", 12.47, 1,    6926.84,  -38.9,   0.96212, 2,    6954.83, -158.6,   0.96601, 3,     6910.4,   81.2,   0.95984
"181885", 12.47, 1,       6926,  -38.9,     0.962, 2,    6953.91, -158.6,   0.96588, 3,    6909.78,   81.2,   0.95975
"181887", 12.47, 1,    6925.89,  -38.9,   0.96199, 2,     6953.8, -158.6,   0.96587, 3,     6909.7,   81.2,   0.95974
"181893", 12.47, 1,    6928.05,  -38.9,   0.96229, 2,    6956.16, -158.6,   0.96619, 3,    6911.33,   81.2,   0.95997
"181894", 12.47, 1,    6925.55,  -38.9,   0.96194, 2,    6953.46, -158.6,   0.96582, 3,    6909.36,   81.2,   0.95969
"181895", 12.47, 1,    6925.55,  -38.9,   0.96194, 2,    6953.46, -158.6,   0.96582, 3,    6909.36,   81.2,   0.95969
"181896", 12.47, 1,    6925.55,  -38.9,   0.96194, 2,    6953.46, -158.6,   0.96582, 3,    6909.36,   81.2,   0.95969
"181897", 12.47, 1,    6925.55,  -38.9,   0.96194, 2,    6953.46, -158.6,   0.96582, 3,    6909.36,   81.2,   0.95969
"181898", 12.47, 1,    6924.62,  -38.9,   0.96181, 0, 0, 0, 0, 0, 0, 0, 0
"181899", 12.47, 1,    6923.92,  -38.9,   0.96171, 0, 0, 0, 0, 0, 0, 0, 0
"181900", 12.47, 1,    6923.74,  -38.9,   0.96169, 0, 0, 0, 0, 0, 0, 0, 0
"181901", 12.47, 1,    6923.57,  -38.9,   0.96167, 0, 0, 0, 0, 0, 0, 0, 0
"181902", 12.47, 1,    6923.39,  -38.9,   0.96164, 0, 0, 0, 0, 0, 0, 0, 0
"181908", 12.47, 3,    6909.22,   81.2,   0.95967, 0, 0, 0, 0, 0, 0, 0, 0
"181903", 12.47, 3,     6909.2,   81.2,   0.95967, 0, 0, 0, 0, 0, 0, 0, 0
"181904", 12.47, 3,    6909.16,   81.2,   0.95966, 0, 0, 0, 0, 0, 0, 0, 0
"181905", 12.47, 3,    6908.94,   81.2,   0.95963, 0, 0, 0, 0, 0, 0, 0, 0
"181909", 12.47, 3,    6908.86,   81.2,   0.95962, 0, 0, 0, 0, 0, 0, 0, 0
"181907", 12.47, 3,    6908.85,   81.2,   0.95962, 0, 0, 0, 0, 0, 0, 0, 0
"181906", 12.47, 3,    6908.83,   81.2,   0.95962, 0, 0, 0, 0, 0, 0, 0, 0
"181910", 12.47, 2,    6951.11, -158.6,   0.96549, 0, 0, 0, 0, 0, 0, 0, 0
"181911", 12.47, 2,    6950.68, -158.6,   0.96543, 0, 0, 0, 0, 0, 0, 0, 0
"181916", 12.47, 2,     6950.2, -158.6,   0.96536, 0, 0, 0, 0, 0, 0, 0, 0
"181915", 12.47, 2,    6950.11, -158.6,   0.96535, 0, 0, 0, 0, 0, 0, 0, 0
"181912", 12.47, 2,    6950.06, -158.6,   0.96535, 0, 0, 0, 0, 0, 0, 0, 0
"181913", 12.47, 2,    6949.93, -158.6,   0.96533, 0, 0, 0, 0, 0, 0, 0, 0
"181914", 12.47, 2,    6949.93, -158.6,   0.96533, 0, 0, 0, 0, 0, 0, 0, 0
"181917", 12.47, 1,    6934.13,  -38.9,   0.96313, 2,    6962.55, -158.6,   0.96708, 3,    6915.73,   81.2,   0.96058
"181920", 12.47, 1,    6934.13,  -38.9,   0.96313, 2,    6962.55, -158.6,   0.96708, 3,    6915.73,   81.2,   0.96058
"181918", 12.47, 1,    6934.26,  -38.9,   0.96315, 2,    6962.68, -158.6,    0.9671, 3,    6915.81,   81.2,   0.96059
"181919", 12.47, 1,    6934.57,  -38.9,   0.96319, 2,    6963.05, -158.6,   0.96715, 3,    6916.02,   81.3,   0.96062
"152566", 12.47, 1,    6934.57,  -38.9,   0.96319, 2,    6963.05, -158.6,   0.96715, 3,    6916.02,   81.3,   0.96062
"181925", 12.47, 1,     6934.2,  -38.9,   0.96314, 2,    6962.54, -158.6,   0.96708, 3,    6915.74,   81.2,   0.96058
"181926", 12.47, 1,    6934.29,  -38.9,   0.96315, 2,    6962.61, -158.6,   0.96709, 3,    6915.83,   81.2,   0.96059
"181927", 12.47, 1,    6934.27,  -38.9,   0.96315, 2,    6962.61, -158.6,   0.96709, 3,    6915.81,   81.2,   0.96059
"181928", 12.47, 1,       6934,  -38.9,   0.96311, 2,    6962.33, -158.6,   0.96705, 3,    6915.54,   81.2,   0.96055
"181924", 12.47, 1,    6934.57,  -38.9,   0.96319, 2,    6963.05, -158.6,   0.96715, 3,    6916.02,   81.3,   0.96062
"181933", 12.47, 3,    6917.79,   81.3,   0.96086, 0, 0, 0, 0, 0, 0, 0, 0
"181934", 12.47, 3,    6917.73,   81.3,   0.96086, 0, 0, 0, 0, 0, 0, 0, 0
"255317", 12.47, 1,     6935.4,  -38.9,   0.96331, 2,    6963.98, -158.6,   0.96728, 3,    6916.73,   81.3,   0.96072
"181929", 12.47, 1,    6936.17,  -38.9,   0.96342, 2,    6964.89, -158.5,    0.9674, 3,    6917.27,   81.3,   0.96079
"181936", 12.47, 1,    6936.78,  -38.8,    0.9635, 2,    6965.58, -158.5,    0.9675, 3,    6917.75,   81.3,   0.96086
"181932", 12.47, 1,    6937.25,  -38.8,   0.96357, 2,     6966.1, -158.5,   0.96757, 3,    6918.12,   81.3,   0.96091
"181939", 12.47, 1,    6933.84,  -38.9,   0.96309, 2,    6962.22, -158.6,   0.96703, 3,    6915.42,   81.2,   0.96053
"181940", 12.47, 1,    6933.84,  -38.9,   0.96309, 2,    6962.22, -158.6,   0.96703, 3,    6915.42,   81.2,   0.96053
"181937", 12.47, 1,    6934.19,  -38.9,   0.96314, 2,    6962.57, -158.6,   0.96708, 3,    6915.76,   81.2,   0.96058
"181938", 12.47, 1,    6933.85,  -38.9,   0.96309, 2,    6962.22, -158.6,   0.96704, 3,    6915.42,   81.2,   0.96053
"181941", 12.47, 1,    6933.84,  -38.9,   0.96309, 2,    6962.22, -158.6,   0.96703, 3,    6915.42,   81.2,   0.96053
"181943", 12.47, 3,     6918.8,   81.4,     0.961, 0, 0, 0, 0, 0, 0, 0, 0
"181944", 12.47, 3,    6918.77,   81.4,     0.961, 0, 0, 0, 0, 0, 0, 0, 0
"181945", 12.47, 1,    6937.78,  -38.8,   0.96364, 2,    6966.62, -158.5,   0.96765, 3,    6918.93,   81.3,   0.96102
"181942", 12.47, 1,    6937.52,  -38.8,    0.9636, 2,    6966.36, -158.5,   0.96761, 3,    6918.98,   81.4,   0.96103
"236964", 12.47, 1,    6937.22,  -38.8,   0.96356, 0, 0, 0, 0, 0, 0, 0, 0
"181946", 12.47, 1,    6936.54,  -38.8,   0.96347, 0, 0, 0, 0, 0, 0, 0, 0
"181953", 12.47, 1,     6936.4,  -38.8,   0.96345, 0, 0, 0, 0, 0, 0, 0, 0
"181947", 12.47, 1,    6936.43,  -38.8,   0.96345, 0, 0, 0, 0, 0, 0, 0, 0
"181950", 12.47, 1,    6936.39,  -38.8,   0.96345, 0, 0, 0, 0, 0, 0, 0, 0
"181948", 12.47, 1,    6936.27,  -38.8,   0.96343, 0, 0, 0, 0, 0, 0, 0, 0
"181951", 12.47, 1,    6936.25,  -38.8,   0.96343, 0, 0, 0, 0, 0, 0, 0, 0
"181952", 12.47, 1,    6936.24,  -38.8,   0.96343, 0, 0, 0, 0, 0, 0, 0, 0
"181954", 12.47, 1,    6936.04,  -38.8,    0.9634, 0, 0, 0, 0, 0, 0, 0, 0
"181949", 12.47, 1,    6936.06,  -38.8,    0.9634, 0, 0, 0, 0, 0, 0, 0, 0
"181955", 12.47, 1,    6936.02,  -38.8,    0.9634, 0, 0, 0, 0, 0, 0, 0, 0
"181956", 12.47, 1,    6936.23,  -38.8,   0.96343, 0, 0, 0, 0, 0, 0, 0, 0
"236966", 12.47, 1,    6937.14,  -38.8,   0.96355, 0, 0, 0, 0, 0, 0, 0, 0
"181957", 12.47, 3,    6917.58,   81.4,   0.96083, 0, 0, 0, 0, 0, 0, 0, 0
"181958", 12.47, 3,    6917.06,   81.3,   0.96076, 0, 0, 0, 0, 0, 0, 0, 0
"181967", 12.47, 3,    6915.95,   81.3,   0.96061, 0, 0, 0, 0, 0, 0, 0, 0
"181966", 12.47, 3,    6915.59,   81.3,   0.96056, 0, 0, 0, 0, 0, 0, 0, 0
"181965", 12.47, 3,    6915.26,   81.3,   0.96051, 0, 0, 0, 0, 0, 0, 0, 0
"181959", 12.47, 3,    6915.14,   81.3,    0.9605, 0, 0, 0, 0, 0, 0, 0, 0
"181963", 12.47, 3,    6916.77,   81.4,   0.96072, 0, 0, 0, 0, 0, 0, 0, 0
"181964", 12.47, 3,    6916.64,   81.4,    0.9607, 0, 0, 0, 0, 0, 0, 0, 0
"181960", 12.47, 3,    6916.59,   81.4,    0.9607, 0, 0, 0, 0, 0, 0, 0, 0
"181961", 12.47, 3,    6916.55,   81.4,   0.96069, 0, 0, 0, 0, 0, 0, 0, 0
"181962", 12.47, 3,    6916.48,   81.4,   0.96068, 0, 0, 0, 0, 0, 0, 0, 0
"181969", 12.47, 1,    6937.27,  -38.8,   0.96357, 2,    6965.87, -158.5,   0.96754, 3,    6919.27,   81.4,   0.96107
"181970", 12.47, 1,    6937.32,  -38.8,   0.96358, 2,    6965.92, -158.5,   0.96755, 3,    6919.32,   81.4,   0.96108
"181971", 12.47, 1,    6936.42,  -38.8,   0.96345, 2,    6965.12, -158.5,   0.96744, 3,    6918.57,   81.4,   0.96097
"181972", 12.47, 1,    6936.41,  -38.8,   0.96345, 2,    6965.11, -158.5,   0.96744, 3,    6918.56,   81.4,   0.96097
"181973", 12.47, 1,    6934.65,  -38.8,    0.9632, 2,    6963.35, -158.5,   0.96719, 3,    6916.94,   81.4,   0.96075
"181974", 12.47, 1,     6934.6,  -38.8,    0.9632, 2,     6963.3, -158.5,   0.96718, 3,     6916.9,   81.4,   0.96074
"181968", 12.47, 1,    6937.37,  -38.8,   0.96358, 2,    6965.96, -158.5,   0.96755, 3,    6919.36,   81.4,   0.96108
"181979", 12.47, 1,    6936.42,  -38.8,   0.96345, 2,    6965.12, -158.5,   0.96744, 3,    6918.57,   81.4,   0.96097
"181976", 12.47, 1,    6935.72,  -38.8,   0.96335, 2,     6964.5, -158.5,   0.96735, 3,    6917.99,   81.4,   0.96089
"181977", 12.47, 1,    6934.88,  -38.8,   0.96324, 2,    6963.58, -158.5,   0.96722, 3,    6917.17,   81.4,   0.96078
"181978", 12.47, 1,    6934.88,  -38.8,   0.96324, 2,    6963.55, -158.5,   0.96722, 3,    6917.18,   81.4,   0.96078
"181975", 12.47, 2,    6963.48, -158.5,   0.96721, 0, 0, 0, 0, 0, 0, 0, 0
"181982", 12.47, 2,    6963.48, -158.5,   0.96721, 0, 0, 0, 0, 0, 0, 0, 0
"181980", 12.47, 1,    6934.22,  -38.8,   0.96315, 2,    6962.92, -158.5,   0.96713, 3,    6916.52,   81.4,   0.96069
"181981", 12.47, 1,     6936.4,  -38.8,   0.96345, 2,     6965.1, -158.5,   0.96743, 3,    6918.55,   81.4,   0.96097
"261881", 12.47, 1,    6937.52,  -38.7,    0.9636, 2,    6964.99, -158.4,   0.96742, 3,    6920.96,   81.4,    0.9613
"181987", 12.47, 1,    6921.02,  -38.9,   0.96131, 2,    6949.28, -158.6,   0.96524, 3,    6902.54,   81.2,   0.95874
"181988", 12.47, 1,    6920.88,  -38.9,   0.96129, 2,    6949.14, -158.6,   0.96522, 3,     6902.4,   81.2,   0.95873
"181985", 12.47, 1,    6931.22,  -38.9,   0.96273, 2,    6959.54, -158.6,   0.96666, 3,    6912.76,   81.2,   0.96016
"181986", 12.47, 1,    6930.34,  -38.9,   0.96261, 2,    6958.65, -158.6,   0.96654, 3,    6911.87,   81.2,   0.96004
"181989", 12.47, 1,    6920.58,  -38.9,   0.96125, 2,    6948.84, -158.6,   0.96518, 3,     6902.1,   81.2,   0.95868
"181992", 12.47, 1,    6920.23,  -38.9,    0.9612, 2,    6948.49, -158.6,   0.96513, 3,    6901.75,   81.2,   0.95863
"181990", 12.47, 1,    6919.98,  -38.9,   0.96117, 2,    6948.24, -158.6,   0.96509, 3,     6901.5,   81.2,    0.9586
"181991", 12.47, 1,    6916.86,  -38.9,   0.96073, 2,     6945.1, -158.6,   0.96466, 3,    6898.37,   81.2,   0.95817
"181993", 12.47, 1,    6936.06,  -38.9,    0.9634, 2,    6964.02, -158.6,   0.96728, 3,    6917.49,   81.2,   0.96082
"181994", 12.47, 1,    6934.61,  -38.9,    0.9632, 2,    6961.77, -158.6,   0.96697, 3,    6915.81,   81.2,   0.96059
"181995", 12.47, 1,    6934.14,  -38.9,   0.96313, 2,    6961.03, -158.6,   0.96687, 3,    6915.25,   81.2,   0.96051
"181996", 12.47, 1,     6933.7,  -38.9,   0.96307, 2,    6960.35, -158.6,   0.96677, 3,    6914.75,   81.2,   0.96044
"181997", 12.47, 1,    6933.28,  -38.9,   0.96302, 2,    6959.69, -158.7,   0.96668, 3,    6914.26,   81.2,   0.96037
"181998", 12.47, 1,     6933.7,  -38.9,   0.96307, 2,    6960.35, -158.6,   0.96677, 3,    6914.75,   81.2,   0.96044
"181999", 12.47, 1,     6933.7,  -38.9,   0.96307, 2,    6960.35, -158.6,   0.96677, 3,    6914.75,   81.2,   0.96044
"182000", 12.47, 1,    6933.28,  -38.9,   0.96302, 2,    6959.69, -158.7,   0.96668, 3,    6914.26,   81.2,   0.96037
"182001", 12.47, 1,    6933.28,  -38.9,   0.96302, 2,    6959.69, -158.7,   0.96668, 3,    6914.26,   81.2,   0.96037
"182002", 12.47, 1,    6933.28,  -38.9,   0.96302, 2,    6959.69, -158.7,   0.96668, 3,    6914.26,   81.2,   0.96037
"182003", 12.47, 1,     6933.7,  -38.9,   0.96307, 2,    6960.35, -158.6,   0.96677, 3,    6914.75,   81.2,   0.96044
"182004", 12.47, 1,    6933.01,  -38.9,   0.96298, 2,    6959.26, -158.7,   0.96662, 3,    6913.93,   81.2,   0.96033
"182005", 12.47, 1,    6932.98,  -38.9,   0.96297, 2,    6959.23, -158.7,   0.96662, 3,     6913.9,   81.2,   0.96032
"182006", 12.47, 1,    6932.96,  -38.9,   0.96297, 2,    6959.21, -158.7,   0.96662, 3,    6913.88,   81.2,   0.96032
"210023", 12.47, 1,    6932.93,  -38.9,   0.96297, 2,    6959.18, -158.7,   0.96661, 3,    6913.86,   81.2,   0.96032
"182012", 12.47, 1,    6931.53,  -38.9,   0.96277, 2,    6957.11, -158.7,   0.96632, 3,    6912.15,   81.2,   0.96008
"182013", 12.47, 1,    6931.53,  -38.9,   0.96277, 2,    6957.11, -158.7,   0.96632, 3,    6912.15,   81.2,   0.96008
"182015", 12.47, 1,    6930.72,  -38.9,   0.96266, 2,    6955.91, -158.7,   0.96616, 3,    6911.17,   81.2,   0.95994
"182016", 12.47, 1,     6930.8,  -38.9,   0.96267, 2,    6956.05, -158.7,   0.96618, 3,    6911.27,   81.2,   0.95996
"182011", 12.47, 1,    6931.53,  -38.9,   0.96277, 2,    6957.11, -158.7,   0.96632, 3,    6912.15,   81.2,   0.96008
"182014", 12.47, 1,    6931.16,  -38.9,   0.96272, 2,    6956.58, -158.7,   0.96625, 3,    6911.71,   81.2,   0.96002
"182018", 12.47, 1,    6930.58,  -38.9,   0.96264, 2,    6955.72, -158.7,   0.96613, 3,    6911.01,   81.2,   0.95992
"182019", 12.47, 1,    6930.23,  -38.9,   0.96259, 2,     6955.2, -158.7,   0.96606, 3,    6910.58,   81.2,   0.95986
"182020", 12.47, 1,    6929.03,  -38.9,   0.96242, 2,    6953.44, -158.7,   0.96581, 3,    6909.13,   81.2,   0.95966
"182017", 12.47, 1,    6928.11,  -38.9,    0.9623, 2,    6952.07, -158.7,   0.96562, 3,    6908.01,   81.2,   0.95951
"182022", 12.47, 1,    6928.07,  -38.9,   0.96229, 2,    6951.75, -158.7,   0.96558, 3,    6908.05,   81.2,   0.95951
"182021", 12.47, 1,    6928.06,  -38.9,   0.96229, 2,    6951.64, -158.7,   0.96556, 3,    6908.08,   81.2,   0.95951
"182024", 12.47, 1,    6927.37,  -38.9,   0.96219, 2,    6951.27, -158.7,   0.96551, 3,    6907.01,   81.2,   0.95937
"182025", 12.47, 1,    6927.36,  -38.9,   0.96219, 2,    6951.26, -158.7,   0.96551, 3,    6906.99,   81.2,   0.95936
"182023", 12.47, 1,    6927.42,  -38.9,    0.9622, 2,    6951.32, -158.7,   0.96552, 3,    6907.05,   81.2,   0.95937
"215930", 12.47, 1,    6926.69,  -38.9,    0.9621, 2,    6950.52, -158.7,   0.96541, 3,    6905.99,   81.2,   0.95922
"182027", 12.47, 1,    6927.24,  -38.9,   0.96218, 2,    6951.14, -158.7,    0.9655, 3,    6906.88,   81.2,   0.95935
"247589", 12.47, 1,    6931.53,  -38.9,   0.96277, 2,    6957.11, -158.7,   0.96632, 3,    6912.15,   81.2,   0.96008
"182030", 12.47, 1,    6931.53,  -38.9,   0.96277, 2,    6957.11, -158.7,   0.96632, 3,    6912.15,   81.2,   0.96008
...
"X_0862099", 0.208, 1,    115.848,  -68.7,   0.96469, 2,    115.831,  171.3,   0.96454, 3,    115.861,   51.3,    0.9648
"S1X_0862099", 0.208, 1,    115.336,  -68.7,   0.96042, 2,    115.357,  171.3,    0.9606, 3,    115.409,   51.3,   0.96103
"S2X_0862099", 0.208, 1,    115.336,  -68.7,   0.96042, 2,    115.357,  171.3,    0.9606, 3,    115.409,   51.3,   0.96103
"S3X_0862099", 0.208, 1,    115.336,  -68.7,   0.96042, 2,    115.357,  171.3,    0.9606, 3,    115.409,   51.3,   0.96103
"X_1000663", 0.4157, 1,    232.618,  -38.1,   0.96922, 2,    232.675, -158.1,   0.96946, 3,    232.585,   81.9,   0.96909
"S1X_1000663", 0.4157, 1,    231.696,  -38.1,   0.96538, 2,    231.711, -158.1,   0.96544, 3,    231.594,   81.9,   0.96496
"X_1000252", 0.4157, 2,    232.578, -158.2,   0.96906, 0, 0, 0, 0, 0, 0, 0, 0
"S1X_1000252", 0.4157, 2,    231.154, -158.1,   0.96312, 0, 0, 0, 0, 0, 0, 0, 0
"X_1001746", 0.208, 1,    115.614,  -68.9,   0.96274, 2,    115.606,  171.2,   0.96267, 3,    115.704,   51.1,   0.96349
"S1X_1001746", 0.208, 1,    114.597,  -68.8,   0.95427, 2,    114.663,  171.2,   0.95482, 3,    114.805,   51.2,     0.956
"S2X_1001746", 0.208, 1,    114.597,  -68.8,   0.95427, 2,    114.663,  171.2,   0.95482, 3,    114.805,   51.2,     0.956
"S3X_1001746", 0.208, 1,    114.597,  -68.8,   0.95427, 2,    114.663,  171.2,   0.95482, 3,    114.805,   51.2,     0.956
"X_1000502", 0.4157, 2,    232.561, -158.2,   0.96899, 0, 0, 0, 0, 0, 0, 0, 0
"S1X_1000502", 0.4157, 2,    229.692, -158.1,   0.95703, 0, 0, 0, 0, 0, 0, 0, 0
"X_1000824", 0.4157, 1,    231.985,  -38.3,   0.96659, 2,    232.334, -158.2,   0.96804, 3,    231.813,   81.7,   0.96587
"S1X_1000824", 0.4157, 1,    231.678,  -38.3,   0.96531, 2,    232.012, -158.2,    0.9667, 3,    231.483,   81.8,   0.96449
"S2X_1000824", 0.4157, 1,    231.678,  -38.3,   0.96531, 2,    232.012, -158.2,    0.9667, 3,    231.483,   81.8,   0.96449
"S3X_1000824", 0.4157, 1,    231.678,  -38.3,   0.96531, 2,    232.012, -158.2,    0.9667, 3,    231.483,   81.8,   0.96449
"X_1001745", 0.208, 1,    115.597,  -68.9,   0.96259, 2,    115.588,  171.2,   0.96252, 3,    115.687,   51.1,   0.96334
"S1X_1001745", 0.208, 1,    114.579,  -68.8,   0.95412, 2,    114.646,  171.2,   0.95468, 3,    114.787,   51.2,   0.95585
"S2X_1001745", 0.208, 1,    114.579,  -68.8,   0.95412, 2,    114.646,  171.2,   0.95468, 3,    114.787,   51.2,   0.95585
"S3X_1001745", 0.208, 1,    114.579,  -68.8,   0.95412, 2,    114.646,  171.2,   0.95468, 3,    114.787,   51.2,   0.95585
"X_1001329", 0.208, 1,    115.538,  -68.9,    0.9621, 2,    115.531,  171.2,   0.96204, 3,     115.63,   51.2,   0.96287
"S1X_1001329", 0.208, 1,    115.027,  -68.8,   0.95785, 2,    115.058,  171.2,   0.95811, 3,    115.179,   51.2,   0.95911
"S2X_1001329", 0.208, 1,    115.027,  -68.8,   0.95785, 2,    115.058,  171.2,   0.95811, 3,    115.179,   51.2,   0.95911
"S3X_1001329", 0.208, 1,    115.027,  -68.8,   0.95785, 2,    115.058,  171.2,   0.95811, 3,    115.179,   51.2,   0.95911
"X_1001359", 0.208, 1,    115.146,  -69.1,   0.95884, 2,    115.138,  170.9,   0.95878, 3,    115.235,   50.9,   0.95958
"S1X_1001359", 0.208, 1,    113.469,  -69.0,   0.94488, 2,    113.582,  171.0,   0.94582, 3,    113.749,   50.9,    0.9472
"S2X_1001359", 0.208, 1,    113.469,  -69.0,   0.94488, 2,    113.582,  171.0,   0.94582, 3,    113.749,   50.9,    0.9472
"S3X_1001359", 0.208, 1,    113.469,  -69.0,   0.94488, 2,    113.582,  171.0,   0.94582, 3,    113.749,   50.9,    0.9472
"X_1001330", 0.208, 1,    115.583,  -68.9,   0.96248, 2,    115.576,  171.1,   0.96242, 3,    115.675,   51.1,   0.96325
"S1X_1001330", 0.208, 1,    115.072,  -68.9,   0.95822, 2,    115.103,  171.2,   0.95849, 3,    115.224,   51.1,   0.95949
"S2X_1001330", 0.208, 1,    115.072,  -68.9,   0.95822, 2,    115.103,  171.2,   0.95849, 3,    115.224,   51.1,   0.95949
"S3X_1001330", 0.208, 1,    115.072,  -68.9,   0.95822, 2,    115.103,  171.2,   0.95849, 3,    115.224,   51.1,   0.95949
"S4X_1001330", 0.208, 1,    115.072,  -68.9,   0.95822, 2,    115.103,  171.2,   0.95849, 3,    115.224,   51.1,   0.95949
"S5X_1001330", 0.208, 1,    115.072,  -68.9,   0.95822, 2,    115.103,  171.2,   0.95849, 3,    115.224,   51.1,   0.95949
"S6X_1001330", 0.208, 1,    115.072,  -68.9,   0.95822, 2,    115.103,  171.2,   0.95849, 3,    115.224,   51.1,   0.95949
"X_1000672", 0.4157, 1,    231.883,  -38.3,   0.96616, 0, 0, 0, 0, 0, 0, 0, 0
"S1X_1000672", 0.4157, 1,    230.963,  -38.3,   0.96233, 0, 0, 0, 0, 0, 0, 0, 0
"X_1001708", 0.208, 1,    115.267,  -69.1,   0.95985, 2,    115.277,  171.0,   0.95993, 3,     115.38,   50.9,   0.96079
"S1X_1001708", 0.208, 1,    112.769,  -69.0,   0.93905, 2,    112.954,  171.1,   0.94059, 3,     113.16,   51.0,    0.9423
"S2X_1001708", 0.208, 1,    112.769,  -69.0,   0.93905, 2,    112.954,  171.1,   0.94059, 3,     113.16,   51.0,    0.9423
"S3X_1001708", 0.208, 1,    112.769,  -69.0,   0.93905, 2,    112.954,  171.1,   0.94059, 3,     113.16,   51.0,    0.9423
"X_1001345", 0.208, 1,    115.439,  -68.9,   0.96128, 2,    115.452,  171.2,   0.96139, 3,    115.567,   51.1,   0.96234
"S1X_1001345", 0.208, 1,    114.929,  -68.9,   0.95703, 2,     114.98,  171.2,   0.95746, 3,    115.116,   51.1,   0.95859
"S2X_1001345", 0.208, 1,    114.929,  -68.9,   0.95703, 2,     114.98,  171.2,   0.95746, 3,    115.116,   51.1,   0.95859
"S3X_1001345", 0.208, 1,    114.929,  -68.9,   0.95703, 2,     114.98,  171.2,   0.95746, 3,    115.116,   51.1,   0.95859
"X_1000933", 0.208, 1,    115.434,  -68.9,   0.96124, 2,    115.447,  171.2,   0.96135, 3,    115.562,   51.1,    0.9623
"S1X_1000933", 0.208, 1,    115.332,  -68.9,   0.96038, 2,    115.352,  171.2,   0.96056, 3,    115.472,   51.1,   0.96155
"S2X_1000933", 0.208, 1,    115.332,  -68.9,   0.96038, 2,    115.352,  171.2,   0.96056, 3,    115.472,   51.1,   0.96155
"S3X_1000933", 0.208, 1,    115.332,  -68.9,   0.96038, 2,    115.352,  171.2,   0.96056, 3,    115.472,   51.1,   0.96155
"S4X_1000933", 0.208, 1,    115.332,  -68.9,   0.96038, 2,    115.352,  171.2,   0.96056, 3,    115.472,   51.1,   0.96155
"S5X_1000933", 0.208, 1,    115.332,  -68.9,   0.96038, 2,    115.352,  171.2,   0.96056, 3,    115.472,   51.1,   0.96155
"S6X_1000933", 0.208, 1,    115.332,  -68.9,   0.96038, 2,    115.352,  171.2,   0.96056, 3,    115.472,   51.1,   0.96155
"S7X_1000933", 0.208, 1,    115.332,  -68.9,   0.96038, 2,    115.352,  171.2,   0.96056, 3,    115.472,   51.1,   0.96155
"S8X_1000933", 0.208, 1,    115.332,  -68.9,   0.96038, 2,    115.352,  171.2,   0.96056, 3,    115.472,   51.1,   0.96155
"S9X_1000933", 0.208, 1,    115.332,  -68.9,   0.96038, 2,    115.352,  171.2,   0.96056, 3,    115.472,   51.1,   0.96155
"S10X_1000933", 0.208, 1,    115.332,  -68.9,   0.96038, 2,    115.352,  171.2,   0.96056, 3,    115.472,   51.1,   0.96155
"S11X_1000933", 0.208, 1,    115.332,  -68.9,   0.96038, 2,    115.352,  171.2,   0.96056, 3,    115.472,   51.1,   0.96155
"S12X_1000933", 0.208, 1,    115.332,  -68.9,   0.96038, 2,    115.352,  171.2,   0.96056, 3,    115.472,   51.1,   0.96155
"S13X_1000933", 0.208, 1,    115.332,  -68.9,   0.96038, 2,    115.352,  171.2,   0.96056, 3,    115.472,   51.1,   0.96155
"S14X_1000933", 0.208, 1,    115.332,  -68.9,   0.96038, 2,    115.352,  171.2,   0.96056, 3,    115.472,   51.1,   0.96155
"S15X_1000933", 0.208, 1,    115.332,  -68.9,   0.96038, 2,    115.352,  171.2,   0.96056, 3,    115.472,   51.1,   0.96155
"X_1001823", 0.4157, 1,    231.807,  -38.5,   0.96584, 0, 0, 0, 0, 0, 0, 0, 0
"S1X_1001823", 0.4157, 1,    230.449,  -38.4,   0.96019, 0, 0, 0, 0, 0, 0, 0, 0
"X_1001822", 0.4157, 1,    231.138,  -38.2,   0.96306, 2,    231.627, -158.1,   0.96509, 3,    230.854,   81.9,   0.96187
"S1X_1001822", 0.4157, 1,    230.954,  -38.2,   0.96229, 2,    231.434, -158.1,   0.96429, 3,    230.657,   81.9,   0.96105
"X_1000042", 0.4157, 1,    231.823,  -38.5,   0.96591, 0, 0, 0, 0, 0, 0, 0, 0
"S1X_1000042", 0.4157, 1,    231.297,  -38.5,   0.96372, 0, 0, 0, 0, 0, 0, 0, 0
"S2X_1000042", 0.4157, 1,    231.297,  -38.5,   0.96372, 0, 0, 0, 0, 0, 0, 0, 0
"S3X_1000042", 0.4157, 1,    231.297,  -38.5,   0.96372, 0, 0, 0, 0, 0, 0, 0, 0
"S4X_1000042", 0.4157, 1,    231.297,  -38.5,   0.96372, 0, 0, 0, 0, 0, 0, 0, 0
"S5X_1000042", 0.4157, 1,    231.297,  -38.5,   0.96372, 0, 0, 0, 0, 0, 0, 0, 0
"S6X_1000042", 0.4157, 1,    231.297,  -38.5,   0.96372, 0, 0, 0, 0, 0, 0, 0, 0
"S7X_1000042", 0.4157, 1,    231.297,  -38.5,   0.96372, 0, 0, 0, 0, 0, 0, 0, 0
"X_1000077", 0.4157, 1,    231.723,  -38.5,    0.9655, 0, 0, 0, 0, 0, 0, 0, 0
"S1X_1000077", 0.4157, 1,    231.416,  -38.5,   0.96422, 0, 0, 0, 0, 0, 0, 0, 0
"S2X_1000077", 0.4157, 1,    231.416,  -38.5,   0.96422, 0, 0, 0, 0, 0, 0, 0, 0
"S3X_1000077", 0.4157, 1,    231.416,  -38.5,   0.96422, 0, 0, 0, 0, 0, 0, 0, 0
"S4X_1000077", 0.4157, 1,    231.416,  -38.5,   0.96422, 0, 0, 0, 0, 0, 0, 0, 0
"S5X_1000077", 0.4157, 1,    231.416,  -38.5,   0.96422, 0, 0, 0, 0, 0, 0, 0, 0
"S6X_1000077", 0.4157, 1,    231.416,  -38.5,   0.96422, 0, 0, 0, 0, 0, 0, 0, 0
"X_1000474", 0.4157, 1,    231.716,  -38.5,   0.96547, 0, 0, 0, 0, 0, 0, 0, 0
"S1X_1000474", 0.4157, 1,    231.348,  -38.5,   0.96393, 0, 0, 0, 0, 0, 0, 0, 0
"S2X_1000474", 0.4157, 1,    231.348,  -38.5,   0.96393, 0, 0, 0, 0, 0, 0, 0, 0
"S3X_1000474", 0.4157, 1,    231.348,  -38.5,   0.96393, 0, 0, 0, 0, 0, 0, 0, 0
"S4X_1000474", 0.4157, 1,    231.348,  -38.5,   0.96393, 0, 0, 0, 0, 0, 0, 0, 0
"S5X_1000474", 0.4157, 1,    231.348,  -38.5,   0.96393, 0, 0, 0, 0, 0, 0, 0, 0
"X_1000043", 0.4157, 1,    231.727,  -38.5,   0.96551, 0, 0, 0, 0, 0, 0, 0, 0
"S1X_1000043", 0.4157, 1,    231.419,  -38.5,   0.96423, 0, 0, 0, 0, 0, 0, 0, 0
"S2X_1000043", 0.4157, 1,    231.419,  -38.5,   0.96423, 0, 0, 0, 0, 0, 0, 0, 0
"S3X_1000043", 0.4157, 1,    231.419,  -38.5,   0.96423, 0, 0, 0, 0, 0, 0, 0, 0
"S4X_1000043", 0.4157, 1,    231.419,  -38.5,   0.96423, 0, 0, 0, 0, 0, 0, 0, 0
"S5X_1000043", 0.4157, 1,    231.419,  -38.5,   0.96423, 0, 0, 0, 0, 0, 0, 0, 0
"S6X_1000043", 0.4157, 1,    231.419,  -38.5,   0.96423, 0, 0, 0, 0, 0, 0, 0, 0
"X_1001567", 0.208, 1,    115.381,  -69.0,    0.9608, 2,    115.404,  171.1,   0.96099, 3,    115.536,   51.0,   0.96208
"S1X_1001567", 0.208, 1,    114.871,  -69.0,   0.95655, 2,    114.932,  171.1,   0.95706, 3,    115.085,   51.0,   0.95833
"S2X_1001567", 0.208, 1,    114.871,  -69.0,   0.95655, 2,    114.932,  171.1,   0.95706, 3,    115.085,   51.0,   0.95833
"S3X_1001567", 0.208, 1,    114.871,  -69.0,   0.95655, 2,    114.932,  171.1,   0.95706, 3,    115.085,   51.0,   0.95833
"X_1000233", 0.4157, 2,    230.519, -158.8,   0.96048, 0, 0, 0, 0, 0, 0, 0, 0
"S1X_1000233", 0.4157, 2,    229.107, -158.7,   0.95459, 0, 0, 0, 0, 0, 0, 0, 0
"X_1000569", 0.208, 1,    114.431,  -69.5,   0.95289, 2,    114.549,  170.6,   0.95387, 3,    114.656,   50.5,   0.95476
"S1X_1000569", 0.208, 1,    113.424,  -69.5,    0.9445, 2,    113.615,  170.6,   0.94609, 3,    113.764,   50.5,   0.94733
"S2X_1000569", 0.208, 1,    113.424,  -69.5,    0.9445, 2,    113.615,  170.6,   0.94609, 3,    113.764,   50.5,   0.94733
"S3X_1000569", 0.208, 1,    113.424,  -69.5,    0.9445, 2,    113.615,  170.6,   0.94609, 3,    113.764,   50.5,   0.94733
"X_1000746", 0.208, 1,    114.394,  -69.5,   0.95257, 2,    114.507,  170.6,   0.95352, 3,    114.616,   50.5,   0.95443
"S1X_1000746", 0.208, 1,    113.387,  -69.5,   0.94419, 2,    113.574,  170.6,   0.94575, 3,    113.725,   50.5,   0.94701
"S2X_1000746", 0.208, 1,    113.387,  -69.5,   0.94419, 2,    113.574,  170.6,   0.94575, 3,    113.725,   50.5,   0.94701
"S3X_1000746", 0.208, 1,    113.387,  -69.5,   0.94419, 2,    113.574,  170.6,   0.94575, 3,    113.725,   50.5,   0.94701
"X_1000608", 0.4157, 1,    229.778,  -39.1,   0.95739, 0, 0, 0, 0, 0, 0, 0, 0
"S1X_1000608", 0.4157, 1,    229.435,  -39.1,   0.95596, 0, 0, 0, 0, 0, 0, 0, 0
"S2X_1000608", 0.4157, 1,    229.435,  -39.1,   0.95596, 0, 0, 0, 0, 0, 0, 0, 0
"S3X_1000608", 0.4157, 1,    229.435,  -39.1,   0.95596, 0, 0, 0, 0, 0, 0, 0, 0
"S4X_1000608", 0.4157, 1,    229.435,  -39.1,   0.95596, 0, 0, 0, 0, 0, 0, 0, 0
"S5X_1000608", 0.4157, 1,    229.435,  -39.1,   0.95596, 0, 0, 0, 0, 0, 0, 0, 0
"S6X_1000608", 0.4157, 1,    229.435,  -39.1,   0.95596, 0, 0, 0, 0, 0, 0, 0, 0
"S7X_1000608", 0.4157, 1,    229.435,  -39.1,   0.95596, 0, 0, 0, 0, 0, 0, 0, 0
"S8X_1000608", 0.4157, 1,    229.435,  -39.1,   0.95596, 0, 0, 0, 0, 0, 0, 0, 0
"X_1000609", 0.4157, 1,    229.575,  -39.1,   0.95654, 0, 0, 0, 0, 0, 0, 0, 0
"S1X_1000609", 0.4157, 1,    229.409,  -39.1,   0.95585, 0, 0, 0, 0, 0, 0, 0, 0
"S2X_1000609", 0.4157, 1,    229.409,  -39.1,   0.95585, 0, 0, 0, 0, 0, 0, 0, 0
"S3X_1000609", 0.4157, 1,    229.409,  -39.1,   0.95585, 0, 0, 0, 0, 0, 0, 0, 0
"S4X_1000609", 0.4157, 1,    229.409,  -39.1,   0.95585, 0, 0, 0, 0, 0, 0, 0, 0
"S5X_1000609", 0.4157, 1,    229.409,  -39.1,   0.95585, 0, 0, 0, 0, 0, 0, 0, 0
"S6X_1000609", 0.4157, 1,    229.409,  -39.1,   0.95585, 0, 0, 0, 0, 0, 0, 0, 0
"S7X_1000609", 0.4157, 1,    229.409,  -39.1,   0.95585, 0, 0, 0, 0, 0, 0, 0, 0
"S8X_1000609", 0.4157, 1,    229.409,  -39.1,   0.95585, 0, 0, 0, 0, 0, 0, 0, 0
"S9X_1000609", 0.4157, 1,    229.409,  -39.1,   0.95585, 0, 0, 0, 0, 0, 0, 0, 0
"S10X_1000609", 0.4157, 1,    229.409,  -39.1,   0.95585, 0, 0, 0, 0, 0, 0, 0, 0
"S11X_1000609", 0.4157, 1,    229.409,  -39.1,   0.95585, 0, 0, 0, 0, 0, 0, 0, 0
"X_1000610", 0.4157, 1,    229.637,  -39.1,    0.9568, 0, 0, 0, 0, 0, 0, 0, 0
"S1X_1000610", 0.4157, 1,    229.305,  -39.1,   0.95542, 0, 0, 0, 0, 0, 0, 0, 0
"S2X_1000610", 0.4157, 1,    229.305,  -39.1,   0.95542, 0, 0, 0, 0, 0, 0, 0, 0
"S3X_1000610", 0.4157, 1,    229.305,  -39.1,   0.95542, 0, 0, 0, 0, 0, 0, 0, 0
"S4X_1000610", 0.4157, 1,    229.305,  -39.1,   0.95542, 0, 0, 0, 0, 0, 0, 0, 0
"S5X_1000610", 0.4157, 1,    229.305,  -39.1,   0.95542, 0, 0, 0, 0, 0, 0, 0, 0
"S6X_1000610", 0.4157, 1,    229.305,  -39.1,   0.95542, 0, 0, 0, 0, 0, 0, 0, 0
"S7X_1000610", 0.4157, 1,    229.305,  -39.1,   0.95542, 0, 0, 0, 0, 0, 0, 0, 0
"S8X_1000610", 0.4157, 1,    229.305,  -39.1,   0.95542, 0, 0, 0, 0, 0, 0, 0, 0
"S9X_1000610", 0.4157, 1,    229.305,  -39.1,   0.95542, 0, 0, 0, 0, 0, 0, 0, 0
"S10X_1000610", 0.4157, 1,    229.305,  -39.1,   0.95542, 0, 0, 0, 0, 0, 0, 0, 0
"S11X_1000610", 0.4157, 1,    229.305,  -39.1,   0.95542, 0, 0, 0, 0, 0, 0, 0, 0
"X_1000611", 0.4157, 1,    229.564,  -39.1,    0.9565, 0, 0, 0, 0, 0, 0, 0, 0
"S1X_1000611", 0.4157, 1,    229.199,  -39.1,   0.95498, 0, 0, 0, 0, 0, 0, 0, 0
"S2X_1000611", 0.4157, 1,    229.199,  -39.1,   0.95498, 0, 0, 0, 0, 0, 0, 0, 0
"S3X_1000611", 0.4157, 1,    229.199,  -39.1,   0.95498, 0, 0, 0, 0, 0, 0, 0, 0
"S4X_1000611", 0.4157, 1,    229.199,  -39.1,   0.95498, 0, 0, 0, 0, 0, 0, 0, 0
"S5X_1000611", 0.4157, 1,    229.199,  -39.1,   0.95498, 0, 0, 0, 0, 0, 0, 0, 0
"X_1000612", 0.4157, 1,    229.626,  -39.1,   0.95676, 0, 0, 0, 0, 0, 0, 0, 0
"S1X_1000612", 0.4157, 1,    229.169,  -39.1,   0.95485, 0, 0, 0, 0, 0, 0, 0, 0
"S2X_1000612", 0.4157, 1,    229.169,  -39.1,   0.95485, 0, 0, 0, 0, 0, 0, 0, 0
"S3X_1000612", 0.4157, 1,    229.169,  -39.1,   0.95485, 0, 0, 0, 0, 0, 0, 0, 0
"S4X_1000612", 0.4157, 1,    229.169,  -39.1,   0.95485, 0, 0, 0, 0, 0, 0, 0, 0
"S5X_1000612", 0.4157, 1,    229.169,  -39.1,   0.95485, 0, 0, 0, 0, 0, 0, 0, 0
"S6X_1000612", 0.4157, 1,    229.169,  -39.1,   0.95485, 0, 0, 0, 0, 0, 0, 0, 0
"S7X_1000612", 0.4157, 1,    229.169,  -39.1,   0.95485, 0, 0, 0, 0, 0, 0, 0, 0
"S8X_1000612", 0.4157, 1,    229.169,  -39.1,   0.95485, 0, 0, 0, 0, 0, 0, 0, 0
"X_1000598", 0.4157, 3,    229.191,   81.1,   0.95494, 0, 0, 0, 0, 0, 0, 0, 0
"S1X_1000598", 0.4157, 3,    228.864,   81.1,   0.95358, 0, 0, 0, 0, 0, 0, 0, 0
"S2X_1000598", 0.4157, 3,    228.864,   81.1,   0.95358, 0, 0, 0, 0, 0, 0, 0, 0
"S3X_1000598", 0.4157, 3,    228.864,   81.1,   0.95358, 0, 0, 0, 0, 0, 0, 0, 0
"S4X_1000598", 0.4157, 3,    228.864,   81.1,   0.95358, 0, 0, 0, 0, 0, 0, 0, 0
"S5X_1000598", 0.4157, 3,    228.864,   81.1,   0.95358, 0, 0, 0, 0, 0, 0, 0, 0
"S6X_1000598", 0.4157, 3,    228.864,   81.1,   0.95358, 0, 0, 0, 0, 0, 0, 0, 0
"S7X_1000598", 0.4157, 3,    228.864,   81.1,   0.95358, 0, 0, 0, 0, 0, 0, 0, 0
"S8X_1000598", 0.4157, 3,    228.864,   81.1,   0.95358, 0, 0, 0, 0, 0, 0, 0, 0
"S9X_1000598", 0.4157, 3,    228.864,   81.1,   0.95358, 0, 0, 0, 0, 0, 0, 0, 0
"X_1000599", 0.4157, 3,    229.189,   81.1,   0.95494, 0, 0, 0, 0, 0, 0, 0, 0
"S1X_1000599", 0.4157, 3,    228.922,   81.1,   0.95382, 0, 0, 0, 0, 0, 0, 0, 0
"S2X_1000599", 0.4157, 3,    228.922,   81.1,   0.95382, 0, 0, 0, 0, 0, 0, 0, 0
"S3X_1000599", 0.4157, 3,    228.922,   81.1,   0.95382, 0, 0, 0, 0, 0, 0, 0, 0
"S4X_1000599", 0.4157, 3,    228.922,   81.1,   0.95382, 0, 0, 0, 0, 0, 0, 0, 0
"S5X_1000599", 0.4157, 3,    228.922,   81.1,   0.95382, 0, 0, 0, 0, 0, 0, 0, 0
"S6X_1000599", 0.4157, 3,    228.922,   81.1,   0.95382, 0, 0, 0, 0, 0, 0, 0, 0
"S7X_1000599", 0.4157, 3,    228.922,   81.1,   0.95382, 0, 0, 0, 0, 0, 0, 0, 0
"S8X_1000599", 0.4157, 3,    228.922,   81.1,   0.95382, 0, 0, 0, 0, 0, 0, 0, 0
"S9X_1000599", 0.4157, 3,    228.922,   81.1,   0.95382, 0, 0, 0, 0, 0, 0, 0, 0
"S10X_1000599", 0.4157, 3,    228.922,   81.1,   0.95382, 0, 0, 0, 0, 0, 0, 0, 0
"S11X_1000599", 0.4157, 3,    228.922,   81.1,   0.95382, 0, 0, 0, 0, 0, 0, 0, 0
"X_1000600", 0.4157, 3,     228.99,   81.0,   0.95411, 0, 0, 0, 0, 0, 0, 0, 0
"S1X_1000600", 0.4157, 3,    228.772,   81.0,    0.9532, 0, 0, 0, 0, 0, 0, 0, 0
"S2X_1000600", 0.4157, 3,    228.772,   81.0,    0.9532, 0, 0, 0, 0, 0, 0, 0, 0
"S3X_1000600", 0.4157, 3,    228.772,   81.0,    0.9532, 0, 0, 0, 0, 0, 0, 0, 0
"S4X_1000600", 0.4157, 3,    228.772,   81.0,    0.9532, 0, 0, 0, 0, 0, 0, 0, 0
"S5X_1000600", 0.4157, 3,    228.772,   81.0,    0.9532, 0, 0, 0, 0, 0, 0, 0, 0
"S6X_1000600", 0.4157, 3,    228.772,   81.0,    0.9532, 0, 0, 0, 0, 0, 0, 0, 0
"S7X_1000600", 0.4157, 3,    228.772,   81.0,    0.9532, 0, 0, 0, 0, 0, 0, 0, 0
"S8X_1000600", 0.4157, 3,    228.772,   81.0,    0.9532, 0, 0, 0, 0, 0, 0, 0, 0
"S9X_1000600", 0.4157, 3,    228.772,   81.0,    0.9532, 0, 0, 0, 0, 0, 0, 0, 0
"X_1000602", 0.4157, 3,    228.986,   81.0,   0.95409, 0, 0, 0, 0, 0, 0, 0, 0
"S1X_1000602", 0.4157, 3,    228.742,   81.0,   0.95307, 0, 0, 0, 0, 0, 0, 0, 0
"S2X_1000602", 0.4157, 3,    228.742,   81.0,   0.95307, 0, 0, 0, 0, 0, 0, 0, 0
"S3X_1000602", 0.4157, 3,    228.742,   81.0,   0.95307, 0, 0, 0, 0, 0, 0, 0, 0
"S4X_1000602", 0.4157, 3,    228.742,   81.0,   0.95307, 0, 0, 0, 0, 0, 0, 0, 0
"S5X_1000602", 0.4157, 3,    228.742,   81.0,   0.95307, 0, 0, 0, 0, 0, 0, 0, 0
"S6X_1000602", 0.4157, 3,    228.742,   81.0,   0.95307, 0, 0, 0, 0, 0, 0, 0, 0
"S7X_1000602", 0.4157, 3,    228.742,   81.0,   0.95307, 0, 0, 0, 0, 0, 0, 0, 0
"S8X_1000602", 0.4157, 3,    228.742,   81.0,   0.95307, 0, 0, 0, 0, 0, 0, 0, 0
"X_1000601", 0.4157, 3,    228.987,   81.0,   0.95409, 0, 0, 0, 0, 0, 0, 0, 0
"S1X_1000601", 0.4157, 3,    228.742,   81.0,   0.95307, 0, 0, 0, 0, 0, 0, 0, 0
"S2X_1000601", 0.4157, 3,    228.742,   81.0,   0.95307, 0, 0, 0, 0, 0, 0, 0, 0
"S3X_1000601", 0.4157, 3,    228.742,   81.0,   0.95307, 0, 0, 0, 0, 0, 0, 0, 0
"S4X_1000601", 0.4157, 3,    228.742,   81.0,   0.95307, 0, 0, 0, 0, 0, 0, 0, 0
"S5X_1000601", 0.4157, 3,    228.742,   81.0,   0.95307, 0, 0, 0, 0, 0, 0, 0, 0
"S6X_1000601", 0.4157, 3,    228.742,   81.0,   0.95307, 0, 0, 0, 0, 0, 0, 0, 0
"S7X_1000601", 0.4157, 3,    228.742,   81.0,   0.95307, 0, 0, 0, 0, 0, 0, 0, 0
"S8X_1000601", 0.4157, 3,    228.742,   81.0,   0.95307, 0, 0, 0, 0, 0, 0, 0, 0
"X_1000603", 0.4157, 2,    230.611, -158.8,   0.96086, 0, 0, 0, 0, 0, 0, 0, 0
"S1X_1000603", 0.4157, 2,      230.2, -158.8,   0.95915, 0, 0, 0, 0, 0, 0, 0, 0
"S2X_1000603", 0.4157, 2,      230.2, -158.8,   0.95915, 0, 0, 0, 0, 0, 0, 0, 0
"S3X_1000603", 0.4157, 2,      230.2, -158.8,   0.95915, 0, 0, 0, 0, 0, 0, 0, 0
"S4X_1000603", 0.4157, 2,      230.2, -158.8,   0.95915, 0, 0, 0, 0, 0, 0, 0, 0
"S5X_1000603", 0.4157, 2,      230.2, -158.8,   0.95915, 0, 0, 0, 0, 0, 0, 0, 0
"S6X_1000603", 0.4157, 2,      230.2, -158.8,   0.95915, 0, 0, 0, 0, 0, 0, 0, 0
"S7X_1000603", 0.4157, 2,      230.2, -158.8,   0.95915, 0, 0, 0, 0, 0, 0, 0, 0
"X_1000604", 0.4157, 2,    230.595, -158.8,    0.9608, 0, 0, 0, 0, 0, 0, 0, 0
"S1X_1000604", 0.4157, 2,    230.403, -158.8,      0.96, 0, 0, 0, 0, 0, 0, 0, 0
"S2X_1000604", 0.4157, 2,    230.403, -158.8,      0.96, 0, 0, 0, 0, 0, 0, 0, 0
"S3X_1000604", 0.4157, 2,    230.403, -158.8,      0.96, 0, 0, 0, 0, 0, 0, 0, 0
"S4X_1000604", 0.4157, 2,    230.403, -158.8,      0.96, 0, 0, 0, 0, 0, 0, 0, 0
"S5X_1000604", 0.4157, 2,    230.403, -158.8,      0.96, 0, 0, 0, 0, 0, 0, 0, 0
"S6X_1000604", 0.4157, 2,    230.403, -158.8,      0.96, 0, 0, 0, 0, 0, 0, 0, 0
"S7X_1000604", 0.4157, 2,    230.403, -158.8,      0.96, 0, 0, 0, 0, 0, 0, 0, 0
"S8X_1000604", 0.4157, 2,    230.403, -158.8,      0.96, 0, 0, 0, 0, 0, 0, 0, 0
"S9X_1000604", 0.4157, 2,    230.403, -158.8,      0.96, 0, 0, 0, 0, 0, 0, 0, 0
"S10X_1000604", 0.4157, 2,    230.403, -158.8,      0.96, 0, 0, 0, 0, 0, 0, 0, 0
"S11X_1000604", 0.4157, 2,    230.403, -158.8,      0.96, 0, 0, 0, 0, 0, 0, 0, 0
"S12X_1000604", 0.4157, 2,    230.403, -158.8,      0.96, 0, 0, 0, 0, 0, 0, 0, 0
"S13X_1000604", 0.4157, 2,    230.403, -158.8,      0.96, 0, 0, 0, 0, 0, 0, 0, 0
"S14X_1000604", 0.4157, 2,    230.403, -158.8,      0.96, 0, 0, 0, 0, 0, 0, 0, 0
"S15X_1000604", 0.4157, 2,    230.403, -158.8,      0.96, 0, 0, 0, 0, 0, 0, 0, 0
"X_1000605", 0.4157, 2,    230.458, -158.8,   0.96023, 0, 0, 0, 0, 0, 0, 0, 0
"S1X_1000605", 0.4157, 2,     230.11, -158.8,   0.95877, 0, 0, 0, 0, 0, 0, 0, 0
"S2X_1000605", 0.4157, 2,     230.11, -158.8,   0.95877, 0, 0, 0, 0, 0, 0, 0, 0
"S3X_1000605", 0.4157, 2,     230.11, -158.8,   0.95877, 0, 0, 0, 0, 0, 0, 0, 0
"S4X_1000605", 0.4157, 2,     230.11, -158.8,   0.95877, 0, 0, 0, 0, 0, 0, 0, 0
"S5X_1000605", 0.4157, 2,     230.11, -158.8,   0.95877, 0, 0, 0, 0, 0, 0, 0, 0
"S6X_1000605", 0.4157, 2,     230.11, -158.8,   0.95877, 0, 0, 0, 0, 0, 0, 0, 0
"S7X_1000605", 0.4157, 2,     230.11, -158.8,   0.95877, 0, 0, 0, 0, 0, 0, 0, 0
"S8X_1000605", 0.4157, 2,     230.11, -158.8,   0.95877, 0, 0, 0, 0, 0, 0, 0, 0
"S9X_1000605", 0.4157, 2,     230.11, -158.8,   0.95877, 0, 0, 0, 0, 0, 0, 0, 0
"S10X_1000605", 0.4157, 2,     230.11, -158.8,   0.95877, 0, 0, 0, 0, 0, 0, 0, 0
"S11X_1000605", 0.4157, 2,     230.11, -158.8,   0.95877, 0, 0, 0, 0, 0, 0, 0, 0
"X_1000606", 0.4157, 2,    230.571, -158.8,   0.96069, 0, 0, 0, 0, 0, 0, 0, 0
"S1X_1000606", 0.4157, 2,    230.331, -158.8,   0.95969, 0, 0, 0, 0, 0, 0, 0, 0
"S2X_1000606", 0.4157, 2,    230.331, -158.8,   0.95969, 0, 0, 0, 0, 0, 0, 0, 0
"S3X_1000606", 0.4157, 2,    230.331, -158.8,   0.95969, 0, 0, 0, 0, 0, 0, 0, 0
"S4X_1000606", 0.4157, 2,    230.331, -158.8,   0.95969, 0, 0, 0, 0, 0, 0, 0, 0
"S5X_1000606", 0.4157, 2,    230.331, -158.8,   0.95969, 0, 0, 0, 0, 0, 0, 0, 0
"S6X_1000606", 0.4157, 2,    230.331, -158.8,   0.95969, 0, 0, 0, 0, 0, 0, 0, 0
"S7X_1000606", 0.4157, 2,    230.331, -158.8,   0.95969, 0, 0, 0, 0, 0, 0, 0, 0
"S8X_1000606", 0.4157, 2,    230.331, -158.8,   0.95969, 0, 0, 0, 0, 0, 0, 0, 0
"S9X_1000606", 0.4157, 2,    230.331, -158.8,   0.95969, 0, 0, 0, 0, 0, 0, 0, 0
"S10X_1000606", 0.4157, 2,    230.331, -158.8,   0.95969, 0, 0, 0, 0, 0, 0, 0, 0
"S11X_1000606", 0.4157, 2,    230.331, -158.8,   0.95969, 0, 0, 0, 0, 0, 0, 0, 0
"S12X_1000606", 0.4157, 2,    230.331, -158.8,   0.95969, 0, 0, 0, 0, 0, 0, 0, 0
"X_1000607", 0.4157, 2,    230.389, -158.8,   0.95994, 0, 0, 0, 0, 0, 0, 0, 0
"S1X_1000607", 0.4157, 2,    230.149, -158.8,   0.95894, 0, 0, 0, 0, 0, 0, 0, 0
"S2X_1000607", 0.4157, 2,    230.149, -158.8,   0.95894, 0, 0, 0, 0, 0, 0, 0, 0
"S3X_1000607", 0.4157, 2,    230.149, -158.8,   0.95894, 0, 0, 0, 0, 0, 0, 0, 0
"S4X_1000607", 0.4157, 2,    230.149, -158.8,   0.95894, 0, 0, 0, 0, 0, 0, 0, 0
"S5X_1000607", 0.4157, 2,    230.149, -158.8,   0.95894, 0, 0, 0, 0, 0, 0, 0, 0
"S6X_1000607", 0.4157, 2,    230.149, -158.8,   0.95894, 0, 0, 0, 0, 0, 0, 0, 0
"S7X_1000607", 0.4157, 2,    230.149, -158.8,   0.95894, 0, 0, 0, 0, 0, 0, 0, 0
"S8X_1000607", 0.4157, 2,    230.149, -158.8,   0.95894, 0, 0, 0, 0, 0, 0, 0, 0
"X_1001933", 0.208, 1,    114.174,  -69.7,   0.95074, 2,      114.3,  170.4,   0.95179, 3,    114.405,   50.3,   0.95267
"S1X_1001933", 0.208, 1,    110.901,  -69.5,   0.92349, 2,    111.248,  170.6,   0.92638, 3,    111.486,   50.4,   0.92837
"S2X_1001933", 0.208, 1,    110.901,  -69.5,   0.92349, 2,    111.248,  170.6,   0.92638, 3,    111.486,   50.4,   0.92837
"S3X_1001933", 0.208, 1,    110.901,  -69.5,   0.92349, 2,    111.248,  170.6,   0.92638, 3,    111.486,   50.4,   0.92837
"X_1000198", 0.4157, 1,    229.834,  -38.9,   0.95762, 0, 0, 0, 0, 0, 0, 0, 0
"S1X_1000198", 0.4157, 1,    229.469,  -38.9,    0.9561, 0, 0, 0, 0, 0, 0, 0, 0
"X_1000548", 0.4157, 1,    229.925,  -39.1,     0.958, 0, 0, 0, 0, 0, 0, 0, 0
"S1X_1000548", 0.4157, 1,    228.108,  -39.0,   0.95043, 0, 0, 0, 0, 0, 0, 0, 0
"X_1000069", 0.208, 1,    114.508,  -69.5,   0.95352, 2,    114.635,  170.6,   0.95458, 3,    114.742,   50.5,   0.95548
"S1X_1000069", 0.208, 1,    114.001,  -69.5,   0.94931, 2,    114.166,  170.6,   0.95068, 3,    114.295,   50.5,   0.95175
"S2X_1000069", 0.208, 1,    114.001,  -69.5,   0.94931, 2,    114.166,  170.6,   0.95068, 3,    114.295,   50.5,   0.95175
"S3X_1000069", 0.208, 1,    114.001,  -69.5,   0.94931, 2,    114.166,  170.6,   0.95068, 3,    114.295,   50.5,   0.95175
"S4X_1000069", 0.208, 1,    114.001,  -69.5,   0.94931, 2,    114.166,  170.6,   0.95068, 3,    114.295,   50.5,   0.95175
"S5X_1000069", 0.208, 1,    114.001,  -69.5,   0.94931, 2,    114.166,  170.6,   0.95068, 3,    114.295,   50.5,   0.95175
"S6X_1000069", 0.208, 1,    114.001,  -69.5,   0.94931, 2,    114.166,  170.6,   0.95068, 3,    114.295,   50.5,   0.95175
"X_1000531", 0.4157, 1,    230.168,  -38.9,   0.95901, 0, 0, 0, 0, 0, 0, 0, 0
"S1X_1000531", 0.4157, 1,    229.918,  -38.9,   0.95797, 0, 0, 0, 0, 0, 0, 0, 0
"S2X_1000531", 0.4157, 1,    229.918,  -38.9,   0.95797, 0, 0, 0, 0, 0, 0, 0, 0
"S3X_1000531", 0.4157, 1,    229.918,  -38.9,   0.95797, 0, 0, 0, 0, 0, 0, 0, 0
"S4X_1000531", 0.4157, 1,    229.918,  -38.9,   0.95797, 0, 0, 0, 0, 0, 0, 0, 0
"S5X_1000531", 0.4157, 1,    229.918,  -38.9,   0.95797, 0, 0, 0, 0, 0, 0, 0, 0
"S6X_1000531", 0.4157, 1,    229.918,  -38.9,   0.95797, 0, 0, 0, 0, 0, 0, 0, 0
"S7X_1000531", 0.4157, 1,    229.918,  -38.9,   0.95797, 0, 0, 0, 0, 0, 0, 0, 0
"S8X_1000531", 0.4157, 1,    229.918,  -38.9,   0.95797, 0, 0, 0, 0, 0, 0, 0, 0
"S9X_1000531", 0.4157, 1,    229.918,  -38.9,   0.95797, 0, 0, 0, 0, 0, 0, 0, 0
"S10X_1000531", 0.4157, 1,    229.918,  -38.9,   0.95797, 0, 0, 0, 0, 0, 0, 0, 0
"S11X_1000531", 0.4157, 1,    229.918,  -38.9,   0.95797, 0, 0, 0, 0, 0, 0, 0, 0
"X_1000533", 0.4157, 1,    230.163,  -38.9,     0.959, 0, 0, 0, 0, 0, 0, 0, 0
"S1X_1000533", 0.4157, 1,    229.914,  -38.9,   0.95795, 0, 0, 0, 0, 0, 0, 0, 0
"S2X_1000533", 0.4157, 1,    229.914,  -38.9,   0.95795, 0, 0, 0, 0, 0, 0, 0, 0
"S3X_1000533", 0.4157, 1,    229.914,  -38.9,   0.95795, 0, 0, 0, 0, 0, 0, 0, 0
"S4X_1000533", 0.4157, 1,    229.914,  -38.9,   0.95795, 0, 0, 0, 0, 0, 0, 0, 0
"S5X_1000533", 0.4157, 1,    229.914,  -38.9,   0.95795, 0, 0, 0, 0, 0, 0, 0, 0
"S6X_1000533", 0.4157, 1,    229.914,  -38.9,   0.95795, 0, 0, 0, 0, 0, 0, 0, 0
"S7X_1000533", 0.4157, 1,    229.914,  -38.9,   0.95795, 0, 0, 0, 0, 0, 0, 0, 0
"S8X_1000533", 0.4157, 1,    229.914,  -38.9,   0.95795, 0, 0, 0, 0, 0, 0, 0, 0
"S9X_1000533", 0.4157, 1,    229.914,  -38.9,   0.95795, 0, 0, 0, 0, 0, 0, 0, 0
"S10X_1000533", 0.4157, 1,    229.914,  -38.9,   0.95795, 0, 0, 0, 0, 0, 0, 0, 0
"S11X_1000533", 0.4157, 1,    229.914,  -38.9,   0.95795, 0, 0, 0, 0, 0, 0, 0, 0
"X_1000532", 0.4157, 1,    230.051,  -39.0,   0.95853, 0, 0, 0, 0, 0, 0, 0, 0
"S1X_1000532", 0.4157, 1,    229.719,  -39.0,   0.95714, 0, 0, 0, 0, 0, 0, 0, 0
"S2X_1000532", 0.4157, 1,    229.719,  -39.0,   0.95714, 0, 0, 0, 0, 0, 0, 0, 0
"S3X_1000532", 0.4157, 1,    229.719,  -39.0,   0.95714, 0, 0, 0, 0, 0, 0, 0, 0
"S4X_1000532", 0.4157, 1,    229.719,  -39.0,   0.95714, 0, 0, 0, 0, 0, 0, 0, 0
"S5X_1000532", 0.4157, 1,    229.719,  -39.0,   0.95714, 0, 0, 0, 0, 0, 0, 0, 0
"S6X_1000532", 0.4157, 1,    229.719,  -39.0,   0.95714, 0, 0, 0, 0, 0, 0, 0, 0
"S7X_1000532", 0.4157, 1,    229.719,  -39.0,   0.95714, 0, 0, 0, 0, 0, 0, 0, 0
"S8X_1000532", 0.4157, 1,    229.719,  -39.0,   0.95714, 0, 0, 0, 0, 0, 0, 0, 0
"S9X_1000532", 0.4157, 1,    229.719,  -39.0,   0.95714, 0, 0, 0, 0, 0, 0, 0, 0
"S10X_1000532", 0.4157, 1,    229.719,  -39.0,   0.95714, 0, 0, 0, 0, 0, 0, 0, 0
"S11X_1000532", 0.4157, 1,    229.719,  -39.0,   0.95714, 0, 0, 0, 0, 0, 0, 0, 0
"X_1000582", 0.4157, 1,    229.989,  -39.0,   0.95827, 0, 0, 0, 0, 0, 0, 0, 0
"S1X_1000582", 0.4157, 1,    229.728,  -39.0,   0.95718, 0, 0, 0, 0, 0, 0, 0, 0
"S2X_1000582", 0.4157, 1,    229.728,  -39.0,   0.95718, 0, 0, 0, 0, 0, 0, 0, 0
"S3X_1000582", 0.4157, 1,    229.728,  -39.0,   0.95718, 0, 0, 0, 0, 0, 0, 0, 0
"S4X_1000582", 0.4157, 1,    229.728,  -39.0,   0.95718, 0, 0, 0, 0, 0, 0, 0, 0
"S5X_1000582", 0.4157, 1,    229.728,  -39.0,   0.95718, 0, 0, 0, 0, 0, 0, 0, 0
"S6X_1000582", 0.4157, 1,    229.728,  -39.0,   0.95718, 0, 0, 0, 0, 0, 0, 0, 0
"S7X_1000582", 0.4157, 1,    229.728,  -39.0,   0.95718, 0, 0, 0, 0, 0, 0, 0, 0
"X_1000581", 0.4157, 1,    229.977,  -39.0,   0.95822, 0, 0, 0, 0, 0, 0, 0, 0
"S1X_1000581", 0.4157, 1,    229.748,  -39.0,   0.95727, 0, 0, 0, 0, 0, 0, 0, 0
"S2X_1000581", 0.4157, 1,    229.748,  -39.0,   0.95727, 0, 0, 0, 0, 0, 0, 0, 0
"S3X_1000581", 0.4157, 1,    229.748,  -39.0,   0.95727, 0, 0, 0, 0, 0, 0, 0, 0
"S4X_1000581", 0.4157, 1,    229.748,  -39.0,   0.95727, 0, 0, 0, 0, 0, 0, 0, 0
"S5X_1000581", 0.4157, 1,    229.748,  -39.0,   0.95727, 0, 0, 0, 0, 0, 0, 0, 0
"S6X_1000581", 0.4157, 1,    229.748,  -39.0,   0.95727, 0, 0, 0, 0, 0, 0, 0, 0
"S7X_1000581", 0.4157, 1,    229.748,  -39.0,   0.95727, 0, 0, 0, 0, 0, 0, 0, 0
"S8X_1000581", 0.4157, 1,    229.748,  -39.0,   0.95727, 0, 0, 0, 0, 0, 0, 0, 0
"X_1000537", 0.4157, 1,    230.155,  -39.0,   0.95896, 0, 0, 0, 0, 0, 0, 0, 0
"S1X_1000537", 0.4157, 1,    229.944,  -39.0,   0.95808, 0, 0, 0, 0, 0, 0, 0, 0
"S2X_1000537", 0.4157, 1,    229.944,  -39.0,   0.95808, 0, 0, 0, 0, 0, 0, 0, 0
"S3X_1000537", 0.4157, 1,    229.944,  -39.0,   0.95808, 0, 0, 0, 0, 0, 0, 0, 0
"S4X_1000537", 0.4157, 1,    229.944,  -39.0,   0.95808, 0, 0, 0, 0, 0, 0, 0, 0
"S5X_1000537", 0.4157, 1,    229.944,  -39.0,   0.95808, 0, 0, 0, 0, 0, 0, 0, 0
"S6X_1000537", 0.4157, 1,    229.944,  -39.0,   0.95808, 0, 0, 0, 0, 0, 0, 0, 0
"S7X_1000537", 0.4157, 1,    229.944,  -39.0,   0.95808, 0, 0, 0, 0, 0, 0, 0, 0
"S8X_1000537", 0.4157, 1,    229.944,  -39.0,   0.95808, 0, 0, 0, 0, 0, 0, 0, 0
"S9X_1000537", 0.4157, 1,    229.944,  -39.0,   0.95808, 0, 0, 0, 0, 0, 0, 0, 0
"S10X_1000537", 0.4157, 1,    229.944,  -39.0,   0.95808, 0, 0, 0, 0, 0, 0, 0, 0
"S11X_1000537", 0.4157, 1,    229.944,  -39.0,   0.95808, 0, 0, 0, 0, 0, 0, 0, 0
"S12X_1000537", 0.4157, 1,    229.944,  -39.0,   0.95808, 0, 0, 0, 0, 0, 0, 0, 0
"S13X_1000537", 0.4157, 1,    229.944,  -39.0,   0.95808, 0, 0, 0, 0, 0, 0, 0, 0
"X_1000536", 0.4157, 1,    230.051,  -39.0,   0.95853, 0, 0, 0, 0, 0, 0, 0, 0
"S1X_1000536", 0.4157, 1,    229.719,  -39.0,   0.95714, 0, 0, 0, 0, 0, 0, 0, 0
"S2X_1000536", 0.4157, 1,    229.719,  -39.0,   0.95714, 0, 0, 0, 0, 0, 0, 0, 0
"S3X_1000536", 0.4157, 1,    229.719,  -39.0,   0.95714, 0, 0, 0, 0, 0, 0, 0, 0
"S4X_1000536", 0.4157, 1,    229.719,  -39.0,   0.95714, 0, 0, 0, 0, 0, 0, 0, 0
"S5X_1000536", 0.4157, 1,    229.719,  -39.0,   0.95714, 0, 0, 0, 0, 0, 0, 0, 0
"S6X_1000536", 0.4157, 1,    229.719,  -39.0,   0.95714, 0, 0, 0, 0, 0, 0, 0, 0
"S7X_1000536", 0.4157, 1,    229.719,  -39.0,   0.95714, 0, 0, 0, 0, 0, 0, 0, 0
"S8X_1000536", 0.4157, 1,    229.719,  -39.0,   0.95714, 0, 0, 0, 0, 0, 0, 0, 0
"S9X_1000536", 0.4157, 1,    229.719,  -39.0,   0.95714, 0, 0, 0, 0, 0, 0, 0, 0
"S10X_1000536", 0.4157, 1,    229.719,  -39.0,   0.95714, 0, 0, 0, 0, 0, 0, 0, 0
"S11X_1000536", 0.4157, 1,    229.719,  -39.0,   0.95714, 0, 0, 0, 0, 0, 0, 0, 0
"X_1000534", 0.4157, 3,    229.269,   81.3,   0.95527, 0, 0, 0, 0, 0, 0, 0, 0
"S1X_1000534", 0.4157, 3,     229.18,   81.3,    0.9549, 0, 0, 0, 0, 0, 0, 0, 0
"S2X_1000534", 0.4157, 3,     229.18,   81.3,    0.9549, 0, 0, 0, 0, 0, 0, 0, 0
"S3X_1000534", 0.4157, 3,     229.18,   81.3,    0.9549, 0, 0, 0, 0, 0, 0, 0, 0
"S4X_1000534", 0.4157, 3,     229.18,   81.3,    0.9549, 0, 0, 0, 0, 0, 0, 0, 0
"S5X_1000534", 0.4157, 3,     229.18,   81.3,    0.9549, 0, 0, 0, 0, 0, 0, 0, 0
"S6X_1000534", 0.4157, 3,     229.18,   81.3,    0.9549, 0, 0, 0, 0, 0, 0, 0, 0
"S7X_1000534", 0.4157, 3,     229.18,   81.3,    0.9549, 0, 0, 0, 0, 0, 0, 0, 0
"S8X_1000534", 0.4157, 3,     229.18,   81.3,    0.9549, 0, 0, 0, 0, 0, 0, 0, 0
"S9X_1000534", 0.4157, 3,     229.18,   81.3,    0.9549, 0, 0, 0, 0, 0, 0, 0, 0
"S10X_1000534", 0.4157, 3,     229.18,   81.3,    0.9549, 0, 0, 0, 0, 0, 0, 0, 0
"S11X_1000534", 0.4157, 3,     229.18,   81.3,    0.9549, 0, 0, 0, 0, 0, 0, 0, 0
"X_1000535", 0.4157, 3,    229.332,   81.1,   0.95553, 0, 0, 0, 0, 0, 0, 0, 0
"S1X_1000535", 0.4157, 3,    228.976,   81.1,   0.95405, 0, 0, 0, 0, 0, 0, 0, 0
"S2X_1000535", 0.4157, 3,    228.976,   81.1,   0.95405, 0, 0, 0, 0, 0, 0, 0, 0
"S3X_1000535", 0.4157, 3,    228.976,   81.1,   0.95405, 0, 0, 0, 0, 0, 0, 0, 0
"S4X_1000535", 0.4157, 3,    228.976,   81.1,   0.95405, 0, 0, 0, 0, 0, 0, 0, 0
"S5X_1000535", 0.4157, 3,    228.976,   81.1,   0.95405, 0, 0, 0, 0, 0, 0, 0, 0
"S6X_1000535", 0.4157, 3,    228.976,   81.1,   0.95405, 0, 0, 0, 0, 0, 0, 0, 0
"S7X_1000535", 0.4157, 3,    228.976,   81.1,   0.95405, 0, 0, 0, 0, 0, 0, 0, 0
"S8X_1000535", 0.4157, 3,    228.976,   81.1,   0.95405, 0, 0, 0, 0, 0, 0, 0, 0
"S9X_1000535", 0.4157, 3,    228.976,   81.1,   0.95405, 0, 0, 0, 0, 0, 0, 0, 0
"S10X_1000535", 0.4157, 3,    228.976,   81.1,   0.95405, 0, 0, 0, 0, 0, 0, 0, 0
"S11X_1000535", 0.4157, 3,    228.976,   81.1,   0.95405, 0, 0, 0, 0, 0, 0, 0, 0
"X_1000586", 0.4157, 3,    229.197,   81.1,   0.95497, 0, 0, 0, 0, 0, 0, 0, 0
"S1X_1000586", 0.4157, 3,    228.708,   81.1,   0.95293, 0, 0, 0, 0, 0, 0, 0, 0
"S2X_1000586", 0.4157, 3,    228.708,   81.1,   0.95293, 0, 0, 0, 0, 0, 0, 0, 0
"S3X_1000586", 0.4157, 3,    228.708,   81.1,   0.95293, 0, 0, 0, 0, 0, 0, 0, 0
"S4X_1000586", 0.4157, 3,    228.708,   81.1,   0.95293, 0, 0, 0, 0, 0, 0, 0, 0
"X_1000589", 0.4157, 3,    229.317,   81.1,   0.95547, 0, 0, 0, 0, 0, 0, 0, 0
"S1X_1000589", 0.4157, 3,    228.925,   81.2,   0.95384, 0, 0, 0, 0, 0, 0, 0, 0
"S2X_1000589", 0.4157, 3,    228.925,   81.2,   0.95384, 0, 0, 0, 0, 0, 0, 0, 0
"S3X_1000589", 0.4157, 3,    228.925,   81.2,   0.95384, 0, 0, 0, 0, 0, 0, 0, 0
"S4X_1000589", 0.4157, 3,    228.925,   81.2,   0.95384, 0, 0, 0, 0, 0, 0, 0, 0
"S5X_1000589", 0.4157, 3,    228.925,   81.2,   0.95384, 0, 0, 0, 0, 0, 0, 0, 0
"S6X_1000589", 0.4157, 3,    228.925,   81.2,   0.95384, 0, 0, 0, 0, 0, 0, 0, 0
"S7X_1000589", 0.4157, 3,    228.925,   81.2,   0.95384, 0, 0, 0, 0, 0, 0, 0, 0
"S8X_1000589", 0.4157, 3,    228.925,   81.2,   0.95384, 0, 0, 0, 0, 0, 0, 0, 0
"S9X_1000589", 0.4157, 3,    228.925,   81.2,   0.95384, 0, 0, 0, 0, 0, 0, 0, 0
"S10X_1000589", 0.4157, 3,    228.925,   81.2,   0.95384, 0, 0, 0, 0, 0, 0, 0, 0
"X_1000587", 0.4157, 3,    229.434,   81.2,   0.95596, 0, 0, 0, 0, 0, 0, 0, 0
"S1X_1000587", 0.4157, 3,    229.167,   81.2,   0.95484, 0, 0, 0, 0, 0, 0, 0, 0
"S2X_1000587", 0.4157, 3,    229.167,   81.2,   0.95484, 0, 0, 0, 0, 0, 0, 0, 0
"S3X_1000587", 0.4157, 3,    229.167,   81.2,   0.95484, 0, 0, 0, 0, 0, 0, 0, 0
"S4X_1000587", 0.4157, 3,    229.167,   81.2,   0.95484, 0, 0, 0, 0, 0, 0, 0, 0
"S5X_1000587", 0.4157, 3,    229.167,   81.2,   0.95484, 0, 0, 0, 0, 0, 0, 0, 0
"S6X_1000587", 0.4157, 3,    229.167,   81.2,   0.95484, 0, 0, 0, 0, 0, 0, 0, 0
"S7X_1000587", 0.4157, 3,    229.167,   81.2,   0.95484, 0, 0, 0, 0, 0, 0, 0, 0
"S8X_1000587", 0.4157, 3,    229.167,   81.2,   0.95484, 0, 0, 0, 0, 0, 0, 0, 0
"S9X_1000587", 0.4157, 3,    229.167,   81.2,   0.95484, 0, 0, 0, 0, 0, 0, 0, 0
"S10X_1000587", 0.4157, 3,    229.167,   81.2,   0.95484, 0, 0, 0, 0, 0, 0, 0, 0
"S11X_1000587", 0.4157, 3,    229.167,   81.2,   0.95484, 0, 0, 0, 0, 0, 0, 0, 0
"X_1000588", 0.4157, 3,    229.432,   81.2,   0.95595, 0, 0, 0, 0, 0, 0, 0, 0
"S1X_1000588", 0.4157, 3,    229.138,   81.2,   0.95472, 0, 0, 0, 0, 0, 0, 0, 0
"S2X_1000588", 0.4157, 3,    229.138,   81.2,   0.95472, 0, 0, 0, 0, 0, 0, 0, 0
"S3X_1000588", 0.4157, 3,    229.138,   81.2,   0.95472, 0, 0, 0, 0, 0, 0, 0, 0
"S4X_1000588", 0.4157, 3,    229.138,   81.2,   0.95472, 0, 0, 0, 0, 0, 0, 0, 0
"S5X_1000588", 0.4157, 3,    229.138,   81.2,   0.95472, 0, 0, 0, 0, 0, 0, 0, 0
"S6X_1000588", 0.4157, 3,    229.138,   81.2,   0.95472, 0, 0, 0, 0, 0, 0, 0, 0
"S7X_1000588", 0.4157, 3,    229.138,   81.2,   0.95472, 0, 0, 0, 0, 0, 0, 0, 0
"S8X_1000588", 0.4157, 3,    229.138,   81.2,   0.95472, 0, 0, 0, 0, 0, 0, 0, 0
"S9X_1000588", 0.4157, 3,    229.138,   81.2,   0.95472, 0, 0, 0, 0, 0, 0, 0, 0
"S10X_1000588", 0.4157, 3,    229.138,   81.2,   0.95472, 0, 0, 0, 0, 0, 0, 0, 0
"X_1000585", 0.4157, 3,      229.2,   81.1,   0.95498, 0, 0, 0, 0, 0, 0, 0, 0
"S1X_1000585", 0.4157, 3,    228.874,   81.1,   0.95362, 0, 0, 0, 0, 0, 0, 0, 0
"S2X_1000585", 0.4157, 3,    228.874,   81.1,   0.95362, 0, 0, 0, 0, 0, 0, 0, 0
"S3X_1000585", 0.4157, 3,    228.874,   81.1,   0.95362, 0, 0, 0, 0, 0, 0, 0, 0
"S4X_1000585", 0.4157, 3,    228.874,   81.1,   0.95362, 0, 0, 0, 0, 0, 0, 0, 0
"S5X_1000585", 0.4157, 3,    228.874,   81.1,   0.95362, 0, 0, 0, 0, 0, 0, 0, 0
"S6X_1000585", 0.4157, 3,    228.874,   81.1,   0.95362, 0, 0, 0, 0, 0, 0, 0, 0
"X_1000584", 0.4157, 3,    229.283,   81.1,   0.95533, 0, 0, 0, 0, 0, 0, 0, 0
"S1X_1000584", 0.4157, 3,    228.982,   81.1,   0.95407, 0, 0, 0, 0, 0, 0, 0, 0
"S2X_1000584", 0.4157, 3,    228.982,   81.1,   0.95407, 0, 0, 0, 0, 0, 0, 0, 0
"S3X_1000584", 0.4157, 3,    228.982,   81.1,   0.95407, 0, 0, 0, 0, 0, 0, 0, 0
"S4X_1000584", 0.4157, 3,    228.982,   81.1,   0.95407, 0, 0, 0, 0, 0, 0, 0, 0
"S5X_1000584", 0.4157, 3,    228.982,   81.1,   0.95407, 0, 0, 0, 0, 0, 0, 0, 0
"S6X_1000584", 0.4157, 3,    228.982,   81.1,   0.95407, 0, 0, 0, 0, 0, 0, 0, 0
"S7X_1000584", 0.4157, 3,    228.982,   81.1,   0.95407, 0, 0, 0, 0, 0, 0, 0, 0
"S8X_1000584", 0.4157, 3,    228.982,   81.1,   0.95407, 0, 0, 0, 0, 0, 0, 0, 0
...